examples/test_perturbation_outputs/pert_min_loss/pglib_opf_case30_as.m
%% MATPOWER Case Format : Version 2
function mpc = pglib_opf_case30_as
mpc.version = '2';

%%-----  Power Flow Data  -----%%
%% system MVA base
mpc.baseMVA = 100.0;
%% bus data
%    bus_i    type    Pd    Qd    Gs    Bs    area    Vm    Va    baseKV    zone    Vmax    Vmin
mpc.bus = [
	1	3	0.0	0.0	0.0	0.0	1	1.0	0.0	135.0	1	1.05	0.95				
	2	2	21.7	12.7	0.0	0.0	1	1.025	0.0	135.0	1	1.1	0.95				
	3	1	2.4	1.2	0.0	0.0	1	1.0	0.0	135.0	1	1.05	0.95				
	4	1	7.6	1.6	0.0	0.0	1	1.0	0.0	135.0	1	1.05	0.95				
	5	2	94.2	19.0	0.0	0.0	1	1.0	0.0	135.0	1	1.05	0.95				
	6	1	0.0	0.0	0.0	0.0	1	1.0	0.0	135.0	1	1.05	0.95				
	7	1	22.8	10.9	0.0	0.0	1	1.0	0.0	135.0	1	1.05	0.95				
	8	2	30.0	30.0	0.0	0.0	1	1.0	0.0	135.0	1	1.05	0.95				
	9	1	0.0	0.0	0.0	0.0	1	1.0	0.0	135.0	1	1.05	0.95				
	10	1	5.8	2.0	0.0	5.26	1	1.0	0.0	135.0	1	1.05	0.95				
	11	2	0.0	0.0	0.0	0.0	1	1.0	0.0	135.0	1	1.05	0.95				
	12	1	11.2	7.5	0.0	0.0	1	1.0	0.0	135.0	1	1.05	0.95				
	13	2	0.0	0.0	0.0	0.0	1	1.025	0.0	135.0	1	1.1	0.95				
	14	1	6.2	1.6	0.0	0.0	1	1.0	0.0	135.0	1	1.05	0.95				
	15	1	8.2	2.5	0.0	0.0	1	1.0	0.0	135.0	1	1.05	0.95				
	16	1	3.5000000000000004	1.8000000000000003	0.0	0.0	1	1.0	0.0	135.0	1	1.05	0.95				
	17	1	9.0	5.8	0.0	0.0	1	1.0	0.0	135.0	1	1.05	0.95				
	18	1	3.2	0.9000000000000001	0.0	0.0	1	1.0	0.0	135.0	1	1.05	0.95				
	19	1	9.5	3.4000000000000004	0.0	0.0	1	1.0	0.0	135.0	1	1.05	0.95				
	20	1	2.2	0.7	0.0	0.0	1	1.0	0.0	135.0	1	1.05	0.95				
	21	1	17.5	11.2	0.0	0.0	1	1.0	0.0	135.0	1	1.05	0.95				
	22	1	0.0	0.0	0.0	0.0	1	1.025	0.0	135.0	1	1.1	0.95				
	23	1	3.2	1.6	0.0	0.0	1	1.025	0.0	135.0	1	1.1	0.95				
	24	1	8.7	6.7	0.0	25.0	1	1.0	0.0	135.0	1	1.05	0.95				
	25	1	0.0	0.0	0.0	0.0	1	1.0	0.0	135.0	1	1.05	0.95				
	26	1	3.5000000000000004	2.3	0.0	0.0	1	1.0	0.0	135.0	1	1.05	0.95				
	27	1	0.0	0.0	0.0	0.0	1	1.025	0.0	135.0	1	1.1	0.95				
	28	1	0.0	0.0	0.0	0.0	1	1.0	0.0	135.0	1	1.05	0.95				
	29	1	2.4	0.9000000000000001	0.0	0.0	1	1.0	0.0	135.0	1	1.05	0.95				
	30	1	10.6	1.9	0.0	0.0	1	1.0	0.0	135.0	1	1.05	0.95				
];

%% generator data
%    bus    Pg    Qg    Qmax    Qmin    Vg    mBase    status    Pmax    Pmin    Pc1    Pc2    Qc1min    Qc1max    Qc2min    Qc2max    ramp_agc    ramp_10    ramp_30    ramp_q    apf
mpc.gen = [
	1	125.0	114.99999999999999	250.0	-20.0	1.0	100.0	1	200.0	50.0															
	2	50.0	40.0	100.0	-20.0	1.025	100.0	1	80.0	20.0															
	5	32.5	32.5	80.0	-15.0	1.0	100.0	1	50.0	15.0															
	8	22.5	22.5	60.0	-15.0	1.0	100.0	1	35.0	10.0															
	11	20.0	20.0	50.0	-10.0	1.0	100.0	1	30.0	10.0															
	13	26.0	22.5	60.0	-15.0	1.025	100.0	1	40.0	12.0															
];

%% branch data
%    f_bus    t_bus    r    x    b    rateA    rateB    rateC    ratio    angle    status    angmin    angmax
mpc.branch = [
	1	2	0.019248389065798427	0.05764494287591325	0.0004623149307654926	130.0	130.0	130.0	0	0	1	-29.999999999999996	29.999999999999996								
	1	3	0.04358899506597147	0.17859705619119592	0.003094308985860974	130.0	130.0	130.0	0	0	1	-29.999999999999996	29.999999999999996								
	2	4	0.055220291658024626	0.16827509947637298	0.10977288920377934	65.0	65.0	65.0	0	0	1	-29.999999999999996	29.999999999999996								
	3	4	0.013222835317289652	0.03796556179630297	0.00046227410534658864	130.0	130.0	130.0	0	0	1	-29.999999999999996	29.999999999999996								
	2	5	0.04675614951711551	0.19643705601559505	0.0005118283974216083	130.0	130.0	130.0	0	0	1	-29.999999999999996	29.999999999999996								
	2	6	0.06028938686017124	0.18294140767635791	0.03201021664436916	65.0	65.0	65.0	0	0	1	-29.999999999999996	29.999999999999996								
	4	6	0.011951905920673274	0.04158058221609336	0.00046276302663956175	90.0	90.0	90.0	0	0	1	-29.999999999999996	29.999999999999996								
	5	7	0.04614692957445221	0.11637047718853383	0.0004622826540598362	70.0	70.0	70.0	0	0	1	-29.999999999999996	29.999999999999996								
	6	7	0.02649657611183673	0.08137548385093099	0.00046226021073443466	130.0	130.0	130.0	0	0	1	-29.999999999999996	29.999999999999996								
	6	8	0.012065522702052713	0.04222931658133738	0.028816985217870326	32.0	32.0	32.0	0	0	1	-29.999999999999996	29.999999999999996								
	6	9	0.0023049951296911873	0.2079490215438778	0.0004624088405843155	65.0	65.0	65.0	0	0	1	-29.999999999999996	29.999999999999996								
	6	10	0.016893059434863484	0.5627391259533058	0.011887617192255829	32.0	32.0	32.0	0	0	1	-29.999999999999996	29.999999999999996								
	9	11	0.002388779362384988	0.2116941830764899	0.00046237163183606567	65.0	65.0	65.0	0	0	1	-29.999999999999996	29.999999999999996								
	9	10	0.0006458126326922882	0.11007643276237018	0.0339443450310904	65.0	65.0	65.0	0	0	1	-29.999999999999996	29.999999999999996								
	4	12	0.0035064201732935554	0.2564719930313617	0.025543197818889963	65.0	65.0	65.0	0	0	1	-29.999999999999996	29.999999999999996								
	12	13	0.0010463126467117033	0.14010937023208628	0.00136222257876323	65.0	65.0	65.0	0	0	1	-29.999999999999996	29.999999999999996								
	12	14	0.11841213034122203	0.24615440570181302	0.04184960049181959	32.0	32.0	32.0	0	0	1	-29.999999999999996	29.999999999999996								
	12	15	0.06615878904478133	0.13031846892561696	0.0004623764787077363	32.0	32.0	32.0	0	0	1	-29.999999999999996	29.999999999999996								
	12	16	0.09488481521075154	0.19950861594269326	0.0004623095931648752	32.0	32.0	32.0	0	0	1	-29.999999999999996	29.999999999999996								
	14	15	0.22077849169138478	0.19949980160206313	0.08705031569490698	16.0	16.0	16.0	0	0	1	-29.999999999999996	29.999999999999996								
	16	17	0.08175822365359646	0.19169460700867652	0.06074437734076603	16.0	16.0	16.0	0	0	1	-29.999999999999996	29.999999999999996								
	15	18	0.10867807983726041	0.221926724528371	0.0004763387242531453	16.0	16.0	16.0	0	0	1	-29.999999999999996	29.999999999999996								
	18	19	0.06347921400092141	0.12834922516232608	0.0936743308074852	16.0	16.0	16.0	0	0	1	-29.999999999999996	29.999999999999996								
	19	20	0.03354492523419405	0.06708983857945527	0.00046234658537936915	32.0	32.0	32.0	0	0	1	-29.999999999999996	29.999999999999996								
	10	20	0.09260326802280117	0.20677295076001914	0.0004622426506167906	32.0	32.0	32.0	0	0	1	-29.999999999999996	29.999999999999996								
	10	17	0.03215297582966913	0.08385568818057151	0.020656396008193717	32.0	32.0	32.0	0	0	1	-29.999999999999996	29.999999999999996								
	10	21	0.03534566373687235	0.07607445189670138	0.07243997120595011	32.0	32.0	32.0	0	0	1	-29.999999999999996	29.999999999999996								
	10	22	0.07293809137302398	0.15039082626929312	0.00046222605171325785	32.0	32.0	32.0	0	0	1	-29.999999999999996	29.999999999999996								
	21	22	0.011642479786135156	0.023686423249981103	0.09528403184490497	32.0	32.0	32.0	0	0	1	-29.999999999999996	29.999999999999996								
	15	23	0.09946560647897214	0.20092192558433516	0.0004622310068022839	16.0	16.0	16.0	0	0	1	-29.999999999999996	29.999999999999996								
	22	24	0.11392956449672158	0.17733079221241926	0.0035787223332438083	16.0	16.0	16.0	0	0	1	-29.999999999999996	29.999999999999996								
	23	24	0.1318828065733791	0.26976734501992106	0.15685396049159664	16.0	16.0	16.0	0	0	1	-29.999999999999996	29.999999999999996								
	24	25	0.18925918878370904	0.33048053865479843	0.00046225991706113576	16.0	16.0	16.0	0	0	1	-29.999999999999996	29.999999999999996								
	25	26	0.2534912719156409	0.3786436502986457	0.0004623021439065517	16.0	16.0	16.0	0	0	1	-29.999999999999996	29.999999999999996								
	25	27	0.11038604751216768	0.21076439901661664	0.017611180491001303	16.0	16.0	16.0	0	0	1	-29.999999999999996	29.999999999999996								
	28	27	0.008537816139555192	0.4001502740258377	0.0004625530025144102	65.0	65.0	65.0	0	0	1	-29.999999999999996	29.999999999999996								
	27	29	0.21421503682093668	0.4047464091819382	0.0004622589099357573	16.0	16.0	16.0	0	0	1	-29.999999999999996	29.999999999999996								
	27	30	0.30443650141346607	0.5730180812074641	0.15443193305308003	16.0	16.0	16.0	0	0	1	-29.999999999999996	29.999999999999996								
	29	30	0.23286116279105196	0.4399980449519809	0.00046222333415868466	16.0	16.0	16.0	0	0	1	-29.999999999999996	29.999999999999996								
	8	28	0.06906985537895144	0.21719921404025305	0.07801890348194022	32.0	32.0	32.0	0	0	1	-29.999999999999996	29.999999999999996								
	6	28	0.016749641817006406	0.05936699864591421	0.11402676454576999	32.0	32.0	32.0	0	0	1	-29.999999999999996	29.999999999999996								
];

%%-----  OPF Data  -----%%
%% cost data
%    1    startup    shutdown    n    x1    y1    ...    xn    yn
%    2    startup    shutdown    n    c(n-1)    ...    c0
mpc.gencost = [
	2	0.0	0.0	3	0.0037500000000000003	2.0	0.0
	2	0.0	0.0	3	0.017500000000000005	1.75	0.0
	2	0.0	0.0	3	0.0625	1.0	0.0
	2	0.0	0.0	3	0.00834	3.25	0.0
	2	0.0	0.0	3	0.025	3.0	0.0
	2	0.0	0.0	3	0.025	3.0	0.0
];

